/*--------------------------------*- C++ -*----------------------------------*\
| =========                 |                                                 |
| \\      /  F ield         | OpenFOAM: The Open Source CFD Toolbox           |
|  \\    /   O peration     | Version:  v1912                                 |
|   \\  /    A nd           | Website:  www.openfoam.com                      |
|    \\/     M anipulation  |                                                 |
\*---------------------------------------------------------------------------*/
FoamFile
{
    version     2.0;
    format      ascii;
    class       dictionary;
    location    "system";
    object      fvSolution;
}
// * * * * * * * * * * * * * * * * * * * * * * * * * * * * * * * * * * * * * //

solvers
{
    p
    {
        solver          GAMG;
        tolerance       1e-10;
        relTol          0.01;
        smoother        DICGaussSeidel;
    }

    pFinal
    {
        $p;
	tolerance	1e-6;
        relTol          0;
    }

    pcorr
    {
        $p
        tolerance       1e-3;
        relTol          0.05;
    }

    pcorrFinal
    {
	$p
	tolerance	1e-3;
	relTol		0;
    }

    U
    {
        solver          smoothSolver;
        smoother        symGaussSeidel;
        tolerance       1e-10;
        relTol          0.01;
	minIter		2;
    }

    UFinal
    {
        $U;
        tolerance       1e-7;
        relTol          0;
	minIter		2;
    }

    "(kl|k|omega|epsilon|nuTilda)"
    {
        solver          smoothSolver;
        smoother        symGaussSeidel;
        tolerance       1e-10;
        relTol          0.01;
	minIter		2;
    }

    cellDisplacement
    {
	solver		GAMG; //smoothSolver;
	smoother	DICGaussSeidel;
	tolerance	1e-7;
	relTol		0;
    }

    "(kl|k|omega|epsilon|cellDisplacement|nuTilda)Final"
    {
	$U
	tolerance	1e-6; //1e-12;
	relTol		0;
	minIter		2;
    }

}

PIMPLE
{
    correctPhi          no; //yes;
    nOuterCorrectors    1; //50;
    nCorrectors         1; //2; //3;
    nNonOrthogonalCorrectors 1; //1; //1;
    turbOnFinalIterOnly	false;
    pRefPoint           (0 2.0 0.15);
    pRefValue           0;
	residualControl
	{
		p
		{
			tolerance	1e-04;
			relTol		0;
		}
		U
		{
			tolerance	1e-04;
			relTol		0;
		}
	}

}

relaxationFactors
{
	fields
	{
		p	0.9;
		pFinal	1;
	}
    equations
    {
	"(U|omega)"			0.9;
	"(k|epsilon)"					0.7;
        "(U|k|omega|epsilon|kt)Final"		1; 
    }
}


// ************************************************************************* //
